***** HSPICE -- H-2013.03-SP2 64-BIT (Aug 26 2013) win64 ******
 Input File: sum_abcin.sp
