$DATA1 SOURCE='HSPICE' VERSION='H-2013.03-SP2 64-BIT'
.TITLE 'sum_abcin'
 pow              temper           alter#            
  1.312e-05         25.0000        1                 
