$DATA1 SOURCE='HSPICE' VERSION='H-2013.03-SP2 64-BIT'
.TITLE 'sum_abcin'
 pow              temper           alter#            
  4.863e-06        100.0000        1                 
