$DATA1 SOURCE='HSPICE' VERSION='H-2013.03-SP2 64-BIT'
.TITLE 'sum_abcin'
 pow              temper           alter#            
  3.240e-06         25.0000        1                 
